18
Lattice="4.321 0.0 0.0 0.0 35.0 0.0 0.0 0.0 25.0" Properties=species:S:1:pos:R:3 pbc="F F F"
H       0.95175384      12.83257691      12.50000000 
C       0.72325432      15.02222391      12.50000000 
C       0.71451425      17.50000373      12.50000000 
C       0.72323642      19.97778281      12.50000000 
H       0.95170871      22.16742309      12.50000000 
C       1.46974706      13.80736334      12.50000000 
C       1.43952864      16.25776598      12.50000000 
C       1.43951451      18.74223951      12.50000000 
C       1.46973225      21.19265076      12.50000000 
C       2.85141375      13.80736653      12.50000000 
C       2.88148900      16.25776560      12.50000000 
C       2.88147161      18.74220521      12.50000000 
C       2.85139864      21.19261345      12.50000000 
H       3.36948659      12.83261471      12.50000000 
C       3.59782459      15.02222878      12.50000000 
C       3.60648575      17.49998549      12.50000000 
C       3.59780754      19.97774277      12.50000000 
H       3.36947469      22.16736156      12.50000000 
