   12
cell= 6.39000000 3.68926822 0.00000000 4.26000000 -2.45951215 0.00000000 0.00000000 0.00000000 14.20000000  nsc= 3 3 1
C   0.00000000  0.00000000  0.00000000
C   1.42000000  0.00000000  0.00000000
C   2.13000000  1.22975607  0.00000000
C   3.55000000  1.22975607  0.00000000
C   4.26000000  2.45951215  0.00000000
C   5.68000000  2.45951215  0.00000000
C   2.13000000  -1.22975607  0.00000000
C   3.55000000  -1.22975607  0.00000000
C   4.26000000  0.00000000  0.00000000
C   5.68000000  0.00000000  0.00000000
C   6.39000000  1.22975607  0.00000000
C   7.81000000  1.22975607  0.00000000

